lig_42
  -OEChem-02282415433D

  9  9  0     0  0  0  0  0  0999 V2000
   -7.0550    5.1610  -16.9850 N   0  3  0  0  0  0  0  0  0  0  0  0
   -5.6810    5.3870  -16.4920 C   0  0  0  0  0  0  0  0  0  0  0  0
   -7.3190    5.2670  -18.3040 C   0  0  0  0  0  0  0  0  0  0  0  0
  -12.0540    4.5610  -18.7100 N   0  0  0  0  0  0  0  0  0  0  0  0
   -8.5860    5.0740  -18.7880 C   0  0  0  0  0  0  0  0  0  0  0  0
   -9.6140    4.7820  -17.8980 C   0  0  0  0  0  0  0  0  0  0  0  0
  -10.9700    4.6610  -18.3690 C   0  0  0  0  0  0  0  0  0  0  0  0
   -9.3270    4.6640  -16.5400 C   0  0  0  0  0  0  0  0  0  0  0  0
   -8.0380    4.8540  -16.1120 C   0  0  0  0  0  0  0  0  0  0  0  0
  1  2  1  0  0  0  0
  1  3  2  0  0  0  0
  1  9  1  0  0  0  0
  3  5  1  0  0  0  0
  4  7  3  0  0  0  0
  5  6  2  0  0  0  0
  6  7  1  0  0  0  0
  6  8  1  0  0  0  0
  8  9  2  0  0  0  0
M  CHG  1   1   1
M  END
$$$$
