lig_46
  -OEChem-02282415433D

 12 13  0     1  0  0  0  0  0999 V2000
  -11.7710    5.2960  -18.1260 N   0  0  0  0  0  0  0  0  0  0  0  0
  -10.7690    5.0910  -18.6190 C   0  0  0  0  0  0  0  0  0  0  0  0
   -9.5260    4.7930  -19.3230 C   0  0  0  0  0  0  0  0  0  0  0  0
   -8.2270    6.0160  -17.6270 N   0  3  0  0  0  0  0  0  0  0  0  0
   -8.3310    5.5220  -18.8010 C   0  0  0  0  0  0  0  0  0  0  0  0
   -7.2200    5.6900  -19.5600 N   0  3  0  0  0  0  0  0  0  0  0  0
   -6.9160    6.6880  -17.4770 C   0  0  1  0  0  0  0  0  0  0  0  0
   -6.2090    6.0000  -16.3060 C   0  0  0  0  0  0  0  0  0  0  0  0
   -4.6880    6.0660  -16.4410 C   0  0  0  0  0  0  0  0  0  0  0  0
   -4.2370    5.6660  -17.8410 C   0  0  0  0  0  0  0  0  0  0  0  0
   -4.8030    6.6150  -18.9000 C   0  0  0  0  0  0  0  0  0  0  0  0
   -6.3340    6.6510  -18.9150 C   0  0  1  0  0  0  0  0  0  0  0  0
  1  2  3  0  0  0  0
  2  3  1  0  0  0  0
  3  5  1  0  0  0  0
  4  5  1  0  0  0  0
  4  7  1  0  0  0  0
  5  6  1  0  0  0  0
  6 12  1  0  0  0  0
  7  8  1  0  0  0  0
  7 12  1  0  0  0  0
  8  9  1  0  0  0  0
  9 10  1  0  0  0  0
 10 11  1  0  0  0  0
 11 12  1  0  0  0  0
M  CHG  2   4   1   6   1
M  END
$$$$
