lig_48
  -OEChem-02282415433D

 15 16  0     0  0  0  0  0  0999 V2000
  -25.9590   -5.5080   -2.3640 N   0  0  0  0  0  0  0  0  0  0  0  0
  -24.9340   -7.9930   -6.1240 C   0  0  0  0  0  0  0  0  0  0  0  0
  -26.2360   -4.2090   -4.1820 O   0  0  0  0  0  0  0  0  0  0  0  0
  -23.6270   -7.7170   -6.4280 C   0  0  0  0  0  0  0  0  0  0  0  0
  -27.7660   -6.6030   -0.5900 N   0  3  0  0  0  0  0  0  0  0  0  0
  -23.0180   -6.6720   -5.7620 C   0  0  0  0  0  0  0  0  0  0  0  0
  -23.7230   -5.9320   -4.8230 C   0  0  0  0  0  0  0  0  0  0  0  0
  -25.0600   -6.2120   -4.5510 C   0  0  0  0  0  0  0  0  0  0  0  0
  -25.6720   -7.2790   -5.2020 C   0  0  0  0  0  0  0  0  0  0  0  0
  -25.8090   -5.2390   -3.6850 C   0  0  0  0  0  0  0  0  0  0  0  0
  -25.5230   -6.7430   -1.6950 C   0  0  0  0  0  0  0  0  0  0  0  0
  -26.3640   -7.0920   -0.4840 C   0  0  0  0  0  0  0  0  0  0  0  0
  -27.8810   -5.1400   -0.8720 C   0  0  0  0  0  0  0  0  0  0  0  0
  -26.6280   -4.5480   -1.4760 C   0  0  0  0  0  0  0  0  0  0  0  0
  -25.5490   -8.9950   -6.7970 F   0  0  0  0  0  0  0  0  0  0  0  0
  1 10  1  0  0  0  0
  1 11  1  0  0  0  0
  1 14  1  0  0  0  0
  2  4  2  0  0  0  0
  2  9  1  0  0  0  0
  2 15  1  0  0  0  0
  3 10  2  0  0  0  0
  4  6  1  0  0  0  0
  5 12  1  0  0  0  0
  5 13  1  0  0  0  0
  6  7  2  0  0  0  0
  7  8  1  0  0  0  0
  8  9  2  0  0  0  0
  8 10  1  0  0  0  0
 11 12  1  0  0  0  0
 13 14  1  0  0  0  0
M  CHG  1   5   1
M  END
$$$$
