lig_19
  -OEChem-02282415433D

 13 14  0     0  0  0  0  0  0999 V2000
   -4.7720    5.4560  -19.8070 N   0  0  0  0  0  0  0  0  0  0  0  0
   -2.8850    6.8780  -19.2340 C   0  0  0  0  0  0  0  0  0  0  0  0
   -3.4680    5.4850  -19.1380 C   0  0  0  0  0  0  0  0  0  0  0  0
   -6.0380    5.2760  -17.8250 N   0  0  0  0  0  0  0  0  0  0  0  0
   -2.5490    4.4470  -19.7520 C   0  0  0  0  0  0  0  0  0  0  0  0
   -7.1350    5.0840  -19.7630 N   0  0  0  0  0  0  0  0  0  0  0  0
   -5.9490    5.2940  -19.1460 C   0  0  0  0  0  0  0  0  0  0  0  0
   -7.3840    5.0280  -17.5590 C   0  0  0  0  0  0  0  0  0  0  0  0
   -8.0490    4.8450  -16.3460 C   0  0  0  0  0  0  0  0  0  0  0  0
   -9.3930    4.5070  -16.3700 C   0  0  0  0  0  0  0  0  0  0  0  0
  -10.0720    4.3590  -17.5720 C   0  0  0  0  0  0  0  0  0  0  0  0
   -9.4270    4.5630  -18.7860 C   0  0  0  0  0  0  0  0  0  0  0  0
   -8.0810    4.8950  -18.7570 C   0  0  0  0  0  0  0  0  0  0  0  0
  1  3  1  0  0  0  0
  1  7  1  0  0  0  0
  2  3  1  0  0  0  0
  3  5  1  0  0  0  0
  4  7  1  0  0  0  0
  4  8  1  0  0  0  0
  6  7  2  0  0  0  0
  6 13  1  0  0  0  0
  8  9  2  0  0  0  0
  8 13  1  0  0  0  0
  9 10  1  0  0  0  0
 10 11  2  0  0  0  0
 11 12  1  0  0  0  0
 12 13  2  0  0  0  0
M  END
$$$$
