lig_36
  -OEChem-02282415433D

 10 11  0     0  0  0  0  0  0999 V2000
   -6.6500    5.1330  -20.5130 N   0  0  0  0  0  0  0  0  0  0  0  0
   -6.5430    5.1490  -19.1830 C   0  0  0  0  0  0  0  0  0  0  0  0
   -7.0950    5.0340  -17.0640 C   0  0  0  0  0  0  0  0  0  0  0  0
   -5.4310    5.2810  -18.4720 N   0  0  0  0  0  0  0  0  0  0  0  0
   -7.9680    4.8590  -15.9630 C   0  0  0  0  0  0  0  0  0  0  0  0
   -5.7820    5.2110  -17.1200 N   0  0  0  0  0  0  0  0  0  0  0  0
   -9.2990    4.6640  -16.1910 C   0  0  0  0  0  0  0  0  0  0  0  0
   -7.6380    4.9850  -18.3470 N   0  0  0  0  0  0  0  0  0  0  0  0
   -9.8140    4.6260  -17.5100 C   0  0  0  0  0  0  0  0  0  0  0  0
   -8.9870    4.7810  -18.5680 C   0  0  0  0  0  0  0  0  0  0  0  0
  1  2  1  0  0  0  0
  2  4  2  0  0  0  0
  2  8  1  0  0  0  0
  3  5  1  0  0  0  0
  3  6  2  0  0  0  0
  3  8  1  0  0  0  0
  4  6  1  0  0  0  0
  5  7  2  0  0  0  0
  7  9  1  0  0  0  0
  8 10  1  0  0  0  0
  9 10  2  0  0  0  0
M  END
$$$$
