lig_5
  -OEChem-02282415433D

 10 11  0     0  0  0  0  0  0999 V2000
   -6.3660    5.5310  -17.4570 N   0  0  0  0  0  0  0  0  0  0  0  0
   -6.4940    5.0290  -15.0230 C   0  0  0  0  0  0  0  0  0  0  0  0
   -5.7560    5.7360  -16.1490 C   0  0  0  0  0  0  0  0  0  0  0  0
   -9.7870    4.4890  -16.6570 N   0  0  0  0  0  0  0  0  0  0  0  0
   -7.6720    5.1360  -17.6210 C   0  0  0  0  0  0  0  0  0  0  0  0
   -8.1930    4.9340  -18.8950 C   0  0  0  0  0  0  0  0  0  0  0  0
   -9.5090    4.5220  -19.0340 C   0  0  0  0  0  0  0  0  0  0  0  0
  -10.2630    4.3180  -17.8990 C   0  0  0  0  0  0  0  0  0  0  0  0
   -8.5150    4.8920  -16.5220 C   0  0  0  0  0  0  0  0  0  0  0  0
   -8.0120    5.0590  -15.1130 C   0  0  0  0  0  0  0  0  0  0  0  0
  1  3  1  0  0  0  0
  1  5  1  0  0  0  0
  2  3  1  0  0  0  0
  2 10  1  0  0  0  0
  4  8  2  0  0  0  0
  4  9  1  0  0  0  0
  5  6  1  0  0  0  0
  5  9  2  0  0  0  0
  6  7  2  0  0  0  0
  7  8  1  0  0  0  0
  9 10  1  0  0  0  0
M  END
$$$$
