lig_100
  -OEChem-02282415433D

 28 29  0     0  0  0  0  0  0999 V2000
   -8.6780    0.9390   -6.7850 C   0  0  0  0  0  0  0  0  0  0  0  0
   -8.1780    1.9200   -7.7520 N   0  3  0  0  0  0  0  0  0  0  0  0
   -4.7200    5.7760  -17.6040 O   0  0  0  0  0  0  0  0  0  0  0  0
   -7.0730    1.3740   -8.5430 C   0  0  0  0  0  0  0  0  0  0  0  0
   -7.8450    3.9480  -13.9660 N   0  0  0  0  0  0  0  0  0  0  0  0
   -3.9390    7.5880  -19.7790 O   0  0  0  0  0  0  0  0  0  0  0  0
   -9.2600    2.3760   -8.6220 C   0  0  0  0  0  0  0  0  0  0  0  0
   -5.4090    4.6740  -19.4450 N   0  0  0  0  0  0  0  0  0  0  0  0
   -8.0080    4.7530   -7.6360 O   0  0  0  0  0  0  0  0  0  0  0  0
   -8.8510    3.5220   -9.5080 C   0  0  0  0  0  0  0  0  0  0  0  0
   -9.0720    3.4680  -10.8790 C   0  0  0  0  0  0  0  0  0  0  0  0
   -8.7210    4.5160  -11.7160 C   0  0  0  0  0  0  0  0  0  0  0  0
   -8.9710    4.4360  -13.1950 C   0  0  0  0  0  0  0  0  0  0  0  0
   -7.8360    3.9870  -15.3440 C   0  0  0  0  0  0  0  0  0  0  0  0
   -8.9470    3.5370  -16.0450 C   0  0  0  0  0  0  0  0  0  0  0  0
   -8.9310    3.5890  -17.4250 C   0  0  0  0  0  0  0  0  0  0  0  0
   -7.8450    4.0690  -18.1110 C   0  0  0  0  0  0  0  0  0  0  0  0
   -6.7270    4.5200  -17.4180 C   0  0  0  0  0  0  0  0  0  0  0  0
   -5.5320    5.0440  -18.1670 C   0  0  0  0  0  0  0  0  0  0  0  0
   -4.4810    5.2620  -20.4610 C   0  0  0  0  0  0  0  0  0  0  0  0
   -3.0360    5.0100  -20.0280 C   0  0  0  0  0  0  0  0  0  0  0  0
   -4.7420    4.5810  -21.8060 C   0  0  0  0  0  0  0  0  0  0  0  0
   -4.7390    6.7670  -20.6160 C   0  0  0  0  0  0  0  0  0  0  0  0
   -6.7250    4.4820  -16.0270 C   0  0  0  0  0  0  0  0  0  0  0  0
   -8.1240    5.6330  -11.1570 C   0  0  0  0  0  0  0  0  0  0  0  0
   -7.8810    5.7100   -9.7990 C   0  0  0  0  0  0  0  0  0  0  0  0
   -8.2450    4.6610   -8.9750 C   0  0  0  0  0  0  0  0  0  0  0  0
  -10.3200    3.0340  -18.3130 Cl  0  0  0  0  0  0  0  0  0  0  0  0
  1  2  1  0  0  0  0
  2  4  1  0  0  0  0
  2  7  1  0  0  0  0
  3 19  2  0  0  0  0
  5 13  1  0  0  0  0
  5 14  1  0  0  0  0
  6 23  1  0  0  0  0
  7 10  1  0  0  0  0
  8 19  1  0  0  0  0
  8 20  1  0  0  0  0
  9 27  1  0  0  0  0
 10 11  2  0  0  0  0
 10 27  1  0  0  0  0
 11 12  1  0  0  0  0
 12 13  1  0  0  0  0
 12 25  2  0  0  0  0
 14 15  2  0  0  0  0
 14 24  1  0  0  0  0
 15 16  1  0  0  0  0
 16 17  2  0  0  0  0
 16 28  1  0  0  0  0
 17 18  1  0  0  0  0
 18 19  1  0  0  0  0
 18 24  2  0  0  0  0
 20 21  1  0  0  0  0
 20 22  1  0  0  0  0
 20 23  1  0  0  0  0
 25 26  1  0  0  0  0
 26 27  2  0  0  0  0
M  CHG  1   2   1
M  END
$$$$
