lig_39
  -OEChem-02282415433D

  8  8  0     0  0  0  0  0  0999 V2000
   -7.2410    5.3630  -18.2290 N   0  3  0  0  0  0  0  0  0  0  0  0
   -6.1200    5.7390  -19.1150 C   0  0  0  0  0  0  0  0  0  0  0  0
   -7.0960    5.4560  -16.8910 C   0  0  0  0  0  0  0  0  0  0  0  0
   -8.1430    5.1330  -16.0530 C   0  0  0  0  0  0  0  0  0  0  0  0
   -9.3510    4.7190  -16.5880 C   0  0  0  0  0  0  0  0  0  0  0  0
   -9.4580    4.6390  -17.9620 C   0  0  0  0  0  0  0  0  0  0  0  0
   -8.3970    4.9510  -18.7790 C   0  0  0  0  0  0  0  0  0  0  0  0
  -11.1010    4.1320  -18.7630 Br  0  0  0  0  0  0  0  0  0  0  0  0
  1  2  1  0  0  0  0
  1  3  2  0  0  0  0
  1  7  1  0  0  0  0
  3  4  1  0  0  0  0
  4  5  2  0  0  0  0
  5  6  1  0  0  0  0
  6  7  2  0  0  0  0
  6  8  1  0  0  0  0
M  CHG  1   1   1
M  END
$$$$
