lig_7
  -OEChem-02282415433D

 10 11  0     0  0  0  0  0  0999 V2000
   -7.9570    5.6600  -15.7860 N   0  0  0  0  0  0  0  0  0  0  0  0
  -10.2000    4.3430  -18.4310 C   0  0  0  0  0  0  0  0  0  0  0  0
   -9.1050    4.8820  -17.5700 C   0  0  0  0  0  0  0  0  0  0  0  0
   -7.1850    5.6840  -16.9120 N   0  0  0  0  0  0  0  0  0  0  0  0
   -9.1170    5.1670  -16.1890 C   0  0  0  0  0  0  0  0  0  0  0  0
   -5.9100    5.8960  -19.3680 N   0  3  0  0  0  0  0  0  0  0  0  0
   -5.7950    6.1560  -16.9040 C   0  0  0  0  0  0  0  0  0  0  0  0
   -5.0860    5.6950  -18.1590 C   0  0  0  0  0  0  0  0  0  0  0  0
   -7.1500    5.1170  -19.3100 C   0  0  0  0  0  0  0  0  0  0  0  0
   -7.8510    5.2190  -17.9870 C   0  0  0  0  0  0  0  0  0  0  0  0
  1  4  1  0  0  0  0
  1  5  2  0  0  0  0
  2  3  1  0  0  0  0
  3  5  1  0  0  0  0
  3 10  2  0  0  0  0
  4  7  1  0  0  0  0
  4 10  1  0  0  0  0
  6  8  1  0  0  0  0
  6  9  1  0  0  0  0
  7  8  1  0  0  0  0
  9 10  1  0  0  0  0
M  CHG  1   6   1
M  END
$$$$
