lig_54
  -OEChem-02282415433D

 12 13  0     0  0  0  0  0  0999 V2000
   -8.9810    6.6820  -13.1980 N   0  3  0  0  0  0  0  0  0  0  0  0
  -10.2190    7.2980  -13.6760 C   0  0  0  0  0  0  0  0  0  0  0  0
   -8.8050    5.3230  -13.7240 C   0  0  0  0  0  0  0  0  0  0  0  0
   -6.7010    5.7580  -14.9820 N   0  0  0  0  0  0  0  0  0  0  0  0
   -7.9430    5.3410  -14.9430 C   0  0  0  0  0  0  0  0  0  0  0  0
   -6.2780    5.7150  -16.3210 N   0  0  0  0  0  0  0  0  0  0  0  0
   -7.2940    5.2690  -17.0430 C   0  0  0  0  0  0  0  0  0  0  0  0
   -8.3640    4.9950  -16.2020 N   0  0  0  0  0  0  0  0  0  0  0  0
   -7.4780    5.0670  -18.4260 C   0  0  0  0  0  0  0  0  0  0  0  0
   -8.6810    4.6130  -18.8770 C   0  0  0  0  0  0  0  0  0  0  0  0
   -9.7410    4.3350  -17.9850 C   0  0  0  0  0  0  0  0  0  0  0  0
   -9.5710    4.5160  -16.6590 C   0  0  0  0  0  0  0  0  0  0  0  0
  1  2  1  0  0  0  0
  1  3  1  0  0  0  0
  3  5  1  0  0  0  0
  4  5  2  0  0  0  0
  4  6  1  0  0  0  0
  5  8  1  0  0  0  0
  6  7  2  0  0  0  0
  7  8  1  0  0  0  0
  7  9  1  0  0  0  0
  8 12  1  0  0  0  0
  9 10  2  0  0  0  0
 10 11  1  0  0  0  0
 11 12  2  0  0  0  0
M  CHG  1   1   1
M  END
$$$$
