lig_50
  -OEChem-02282415433D

 11 12  0     0  0  0  0  0  0999 V2000
   -3.6250    4.9950  -16.8430 N   0  0  0  0  0  0  0  0  0  0  0  0
   -4.2490    5.2510  -17.9900 C   0  0  0  0  0  0  0  0  0  0  0  0
   -3.6620    5.3120  -19.0870 O   0  0  0  0  0  0  0  0  0  0  0  0
   -5.7180    5.4940  -17.8990 C   0  0  0  0  0  0  0  0  0  0  0  0
   -7.7110    5.2590  -17.0480 N   0  0  0  0  0  0  0  0  0  0  0  0
   -6.4220    5.5390  -16.7340 C   0  0  0  0  0  0  0  0  0  0  0  0
   -6.5800    5.1750  -18.9480 N   0  0  0  0  0  0  0  0  0  0  0  0
   -7.7680    5.0420  -18.3780 C   0  0  0  0  0  0  0  0  0  0  0  0
   -9.0400    4.6970  -19.0220 C   0  0  0  0  0  0  0  0  0  0  0  0
  -10.0930    3.9470  -18.2570 C   0  0  0  0  0  0  0  0  0  0  0  0
  -10.3080    5.3720  -18.5780 C   0  0  0  0  0  0  0  0  0  0  0  0
  1  2  1  0  0  0  0
  2  3  2  0  0  0  0
  2  4  1  0  0  0  0
  4  6  2  0  0  0  0
  4  7  1  0  0  0  0
  5  6  1  0  0  0  0
  5  8  1  0  0  0  0
  7  8  2  0  0  0  0
  8  9  1  0  0  0  0
  9 10  1  0  0  0  0
  9 11  1  0  0  0  0
 10 11  1  0  0  0  0
M  END
$$$$
