lig_88
  -OEChem-02282415433D

 18 20  0     0  0  0  0  0  0999 V2000
   -6.2690    9.9240  -25.9330 N   0  0  0  0  0  0  0  0  0  0  0  0
   -6.1150    8.1670  -23.6390 C   0  0  0  0  0  0  0  0  0  0  0  0
   -6.7770    7.7090  -24.7290 O   0  0  0  0  0  0  0  0  0  0  0  0
   -5.7340    7.2740  -22.6440 C   0  0  0  0  0  0  0  0  0  0  0  0
   -8.5780   10.0910  -26.4210 N   0  0  0  0  0  0  0  0  0  0  0  0
   -5.0210    7.7200  -21.5480 C   0  0  0  0  0  0  0  0  0  0  0  0
   -7.4210    8.3940  -27.2910 N   0  0  0  0  0  0  0  0  0  0  0  0
   -4.6870    9.0480  -21.4380 C   0  0  0  0  0  0  0  0  0  0  0  0
   -5.0700    9.9450  -22.4200 C   0  0  0  0  0  0  0  0  0  0  0  0
   -5.7940    9.5240  -23.5320 C   0  0  0  0  0  0  0  0  0  0  0  0
   -6.2400   10.5000  -24.5950 C   0  0  0  0  0  0  0  0  0  0  0  0
   -7.3920    9.5150  -26.5340 C   0  0  0  0  0  0  0  0  0  0  0  0
   -9.4460    9.2700  -27.1410 C   0  0  0  0  0  0  0  0  0  0  0  0
  -10.8270    9.3370  -27.3170 C   0  0  0  0  0  0  0  0  0  0  0  0
  -11.4590    8.3280  -28.0300 C   0  0  0  0  0  0  0  0  0  0  0  0
  -10.7310    7.2790  -28.5820 C   0  0  0  0  0  0  0  0  0  0  0  0
   -9.3550    7.2050  -28.4190 C   0  0  0  0  0  0  0  0  0  0  0  0
   -8.7320    8.2070  -27.6890 C   0  0  0  0  0  0  0  0  0  0  0  0
  1 11  1  0  0  0  0
  1 12  1  0  0  0  0
  2  3  1  0  0  0  0
  2  4  2  0  0  0  0
  2 10  1  0  0  0  0
  4  6  1  0  0  0  0
  5 12  1  0  0  0  0
  5 13  1  0  0  0  0
  6  8  2  0  0  0  0
  7 12  2  0  0  0  0
  7 18  1  0  0  0  0
  8  9  1  0  0  0  0
  9 10  2  0  0  0  0
 10 11  1  0  0  0  0
 13 14  2  0  0  0  0
 13 18  1  0  0  0  0
 14 15  1  0  0  0  0
 15 16  2  0  0  0  0
 16 17  1  0  0  0  0
 17 18  2  0  0  0  0
M  END
$$$$
