lig_95
  -OEChem-02282415433D

 26 27  0     1  0  0  0  0  0999 V2000
   -7.2720    2.0990   -8.9390 C   0  0  0  0  0  0  0  0  0  0  0  0
   -8.7310    2.0830   -8.8690 N   0  3  0  0  0  0  0  0  0  0  0  0
   -4.8760    5.8490  -18.1260 O   0  0  0  0  0  0  0  0  0  0  0  0
   -8.3150    5.9360   -9.7860 S   0  0  0  0  0  0  0  0  0  0  0  0
   -9.1870    1.3880   -7.6640 C   0  0  0  0  0  0  0  0  0  0  0  0
   -8.5610    3.8820  -11.2490 N   0  3  0  0  0  0  0  0  0  0  0  0
   -5.4830    8.2560  -21.0220 O   0  0  0  0  0  0  0  0  0  0  0  0
   -9.2700    3.4460   -8.8990 C   0  0  0  0  0  0  0  0  0  0  0  0
   -7.9940    4.7220  -14.4460 N   0  0  0  0  0  0  0  0  0  0  0  0
   -8.7280    4.2780  -10.0190 C   0  0  3  0  0  0  0  0  0  0  0  0
   -5.9270    5.4690  -20.0800 N   0  0  0  0  0  0  0  0  0  0  0  0
   -8.6530    4.9710  -12.1050 C   0  0  3  0  0  0  0  0  0  0  0  0
   -9.1060    4.7870  -13.5220 C   0  0  0  0  0  0  0  0  0  0  0  0
   -8.1130    4.6500  -15.8260 C   0  0  0  0  0  0  0  0  0  0  0  0
   -9.2560    4.1450  -16.4450 C   0  0  0  0  0  0  0  0  0  0  0  0
   -9.3000    4.1000  -17.8300 C   0  0  0  0  0  0  0  0  0  0  0  0
   -8.2400    4.5200  -18.5960 C   0  0  0  0  0  0  0  0  0  0  0  0
   -7.0930    5.0160  -17.9890 C   0  0  0  0  0  0  0  0  0  0  0  0
   -5.8770    5.4850  -18.7440 C   0  0  0  0  0  0  0  0  0  0  0  0
   -4.8290    5.8650  -21.0180 C   0  0  0  0  0  0  0  0  0  0  0  0
   -3.6060    4.9710  -20.7960 C   0  0  0  0  0  0  0  0  0  0  0  0
   -5.3280    5.7030  -22.4560 C   0  0  0  0  0  0  0  0  0  0  0  0
   -4.4290    7.3290  -20.8030 C   0  0  0  0  0  0  0  0  0  0  0  0
   -7.0360    5.0740  -16.6010 C   0  0  0  0  0  0  0  0  0  0  0  0
   -8.3450    6.1430  -11.4930 C   0  0  0  0  0  0  0  0  0  0  0  0
  -10.7230    3.4910  -18.6300 Cl  0  0  0  0  0  0  0  0  0  0  0  0
  1  2  1  0  0  0  0
  2  5  1  0  0  0  0
  2  8  1  0  0  0  0
  3 19  2  0  0  0  0
  4 10  1  0  0  0  0
  4 25  1  0  0  0  0
  6 10  1  0  0  0  0
  6 12  1  0  0  0  0
  7 23  1  0  0  0  0
  8 10  1  0  0  0  0
  9 13  1  0  0  0  0
  9 14  1  0  0  0  0
 11 19  1  0  0  0  0
 11 20  1  0  0  0  0
 12 13  1  0  0  0  0
 12 25  1  0  0  0  0
 14 15  2  0  0  0  0
 14 24  1  0  0  0  0
 15 16  1  0  0  0  0
 16 17  2  0  0  0  0
 16 26  1  0  0  0  0
 17 18  1  0  0  0  0
 18 19  1  0  0  0  0
 18 24  2  0  0  0  0
 20 21  1  0  0  0  0
 20 22  1  0  0  0  0
 20 23  1  0  0  0  0
M  CHG  2   2   1   6   1
M  END
$$$$
