lig_75
  -OEChem-02282415433D

 11 11  0     0  0  0  0  0  0999 V2000
   -8.1640    2.4920  -29.1430 N   0  0  0  0  0  0  0  0  0  0  0  0
   -9.3030    1.6480  -28.7980 C   0  0  0  0  0  0  0  0  0  0  0  0
   -6.3100    3.2630  -28.1180 O   0  0  0  0  0  0  0  0  0  0  0  0
   -8.4480    3.5460  -30.1100 C   0  0  0  0  0  0  0  0  0  0  0  0
   -6.3950    1.0860  -28.6980 N   0  0  0  0  0  0  0  0  0  0  0  0
   -6.9240    2.3330  -28.6110 C   0  0  0  0  0  0  0  0  0  0  0  0
   -6.0990   -1.5370  -28.8000 N   0  3  0  0  0  0  0  0  0  0  0  0
   -5.8790    0.6380  -30.0010 C   0  0  0  0  0  0  0  0  0  0  0  0
   -5.9370   -0.8770  -30.1200 C   0  0  0  0  0  0  0  0  0  0  0  0
   -5.2490   -0.9030  -27.7710 C   0  0  0  0  0  0  0  0  0  0  0  0
   -5.6500    0.5450  -27.5500 C   0  0  0  0  0  0  0  0  0  0  0  0
  1  2  1  0  0  0  0
  1  4  1  0  0  0  0
  1  6  1  0  0  0  0
  3  6  2  0  0  0  0
  5  6  1  0  0  0  0
  5  8  1  0  0  0  0
  5 11  1  0  0  0  0
  7  9  1  0  0  0  0
  7 10  1  0  0  0  0
  8  9  1  0  0  0  0
 10 11  1  0  0  0  0
M  CHG  1   7   1
M  END
$$$$
