lig_60
  -OEChem-02282415433D

 14 14  0     1  0  0  0  0  0999 V2000
   -6.6550    4.5970  -21.1740 N   0  0  0  0  0  0  0  0  0  0  0  0
   -3.7150    4.9140  -17.4440 C   0  0  0  0  0  0  0  0  0  0  0  0
   -5.9440    5.5090  -17.9230 O   0  0  0  0  0  0  0  0  0  0  0  0
   -5.0250    5.3650  -16.8390 C   0  0  2  0  0  0  0  0  0  0  0  0
   -5.5720    7.7300  -16.5650 N   0  0  0  0  0  0  0  0  0  0  0  0
   -4.0330    6.7960  -15.2080 O   0  0  0  0  0  0  0  0  0  0  0  0
   -7.2430    5.1000  -17.7460 C   0  0  0  0  0  0  0  0  0  0  0  0
   -7.9230    5.0970  -16.5360 C   0  0  0  0  0  0  0  0  0  0  0  0
   -9.2620    4.7470  -16.4960 C   0  0  0  0  0  0  0  0  0  0  0  0
   -9.9330    4.4210  -17.6540 C   0  0  0  0  0  0  0  0  0  0  0  0
   -9.2700    4.4180  -18.8660 C   0  0  0  0  0  0  0  0  0  0  0  0
   -7.9120    4.7350  -18.9220 C   0  0  0  0  0  0  0  0  0  0  0  0
   -7.1930    4.6640  -20.1680 C   0  0  0  0  0  0  0  0  0  0  0  0
   -4.8450    6.7100  -16.1330 C   0  0  0  0  0  0  0  0  0  0  0  0
  1 13  3  0  0  0  0
  2  4  1  0  0  0  0
  3  4  1  0  0  0  0
  3  7  1  0  0  0  0
  4 14  1  0  0  0  0
  5 14  1  0  0  0  0
  6 14  2  0  0  0  0
  7  8  2  0  0  0  0
  7 12  1  0  0  0  0
  8  9  1  0  0  0  0
  9 10  2  0  0  0  0
 10 11  1  0  0  0  0
 11 12  2  0  0  0  0
 12 13  1  0  0  0  0
M  END
$$$$
