lig_59
  -OEChem-02282415433D

 14 15  0     0  0  0  0  0  0999 V2000
   -6.9520    5.6820  -16.1540 N   0  0  0  0  0  0  0  0  0  0  0  0
  -11.0410    4.8320  -18.7120 C   0  0  0  0  0  0  0  0  0  0  0  0
  -10.4530    4.1970  -17.5770 O   0  0  0  0  0  0  0  0  0  0  0  0
   -9.2880    4.6930  -17.1160 C   0  0  0  0  0  0  0  0  0  0  0  0
   -8.3410    5.0230  -17.9780 N   0  0  0  0  0  0  0  0  0  0  0  0
   -9.1600    4.8100  -15.7340 C   0  0  0  0  0  0  0  0  0  0  0  0
   -6.1880    5.7890  -18.3340 N   0  0  0  0  0  0  0  0  0  0  0  0
   -7.9440    5.3210  -15.3230 C   0  0  0  0  0  0  0  0  0  0  0  0
   -4.7260    7.6640  -19.4730 N   0  3  0  0  0  0  0  0  0  0  0  0
   -7.2000    5.5030  -17.4600 C   0  0  0  0  0  0  0  0  0  0  0  0
   -4.7710    5.6490  -17.9750 C   0  0  0  0  0  0  0  0  0  0  0  0
   -3.9480    6.8000  -18.5350 C   0  0  0  0  0  0  0  0  0  0  0  0
   -5.5080    6.8710  -20.4610 C   0  0  0  0  0  0  0  0  0  0  0  0
   -6.3790    5.8120  -19.7900 C   0  0  0  0  0  0  0  0  0  0  0  0
  1  8  2  0  0  0  0
  1 10  1  0  0  0  0
  2  3  1  0  0  0  0
  3  4  1  0  0  0  0
  4  5  1  0  0  0  0
  4  6  2  0  0  0  0
  5 10  2  0  0  0  0
  6  8  1  0  0  0  0
  7 10  1  0  0  0  0
  7 11  1  0  0  0  0
  7 14  1  0  0  0  0
  9 12  1  0  0  0  0
  9 13  1  0  0  0  0
 11 12  1  0  0  0  0
 13 14  1  0  0  0  0
M  CHG  1   9   1
M  END
$$$$
