lig_16
  -OEChem-02282415433D

 15 15  0     0  0  0  0  0  0999 V2000
   -6.1080    5.5110  -20.0690 N   0  0  0  0  0  0  0  0  0  0  0  0
   -4.7860    7.3420  -21.0390 C   0  0  0  0  0  0  0  0  0  0  0  0
   -6.1240    5.9720  -23.1670 O   0  0  0  0  0  0  0  0  0  0  0  0
  -11.0520    4.0250  -18.6450 Cl  0  0  0  0  0  0  0  0  0  0  0  0
   -4.9870    5.8240  -20.9870 C   0  0  0  0  0  0  0  0  0  0  0  0
   -5.0640    5.9990  -18.1340 O   0  0  0  0  0  0  0  0  0  0  0  0
   -3.6980    5.1630  -20.5130 C   0  0  0  0  0  0  0  0  0  0  0  0
   -5.2420    5.2150  -22.3560 C   0  0  0  0  0  0  0  0  0  0  0  0
   -6.0710    5.6200  -18.7260 C   0  0  0  0  0  0  0  0  0  0  0  0
   -7.3110    5.2520  -17.9710 C   0  0  0  0  0  0  0  0  0  0  0  0
   -7.2650    5.2750  -16.5800 C   0  0  0  0  0  0  0  0  0  0  0  0
   -8.3690    4.8960  -15.8340 C   0  0  0  0  0  0  0  0  0  0  0  0
   -9.5310    4.4870  -16.4650 C   0  0  0  0  0  0  0  0  0  0  0  0
   -9.5710    4.4740  -17.8420 C   0  0  0  0  0  0  0  0  0  0  0  0
   -8.4830    4.8490  -18.6060 C   0  0  0  0  0  0  0  0  0  0  0  0
  1  5  1  0  0  0  0
  1  9  1  0  0  0  0
  2  5  1  0  0  0  0
  3  8  1  0  0  0  0
  4 14  1  0  0  0  0
  5  7  1  0  0  0  0
  5  8  1  0  0  0  0
  6  9  2  0  0  0  0
  9 10  1  0  0  0  0
 10 11  2  0  0  0  0
 10 15  1  0  0  0  0
 11 12  1  0  0  0  0
 12 13  2  0  0  0  0
 13 14  1  0  0  0  0
 14 15  2  0  0  0  0
M  END
$$$$
