lig_96
  -OEChem-02282415433D

 23 25  0     0  0  0  0  0  0999 V2000
   -2.0810    7.2140  -14.3730 C   0  0  0  0  0  0  0  0  0  0  0  0
   -8.9340    4.4790  -13.7480 N   0  0  0  0  0  0  0  0  0  0  0  0
   -2.5950    7.4360  -15.6930 O   0  0  0  0  0  0  0  0  0  0  0  0
   -3.8100    6.9200  -16.0140 C   0  0  0  0  0  0  0  0  0  0  0  0
   -8.6000    3.9960  -10.1910 N   0  0  0  0  0  0  0  0  0  0  0  0
   -7.9600    6.4290  -14.3530 O   0  0  0  0  0  0  0  0  0  0  0  0
   -4.6490    7.6840  -16.8200 C   0  0  0  0  0  0  0  0  0  0  0  0
   -8.4060    5.3440  -10.3340 N   0  0  0  0  0  0  0  0  0  0  0  0
   -5.8720    7.1560  -17.1570 C   0  0  0  0  0  0  0  0  0  0  0  0
   -4.1160    5.7130  -15.5670 N   0  0  0  0  0  0  0  0  0  0  0  0
   -6.2530    5.9000  -16.6940 C   0  0  0  0  0  0  0  0  0  0  0  0
   -7.5640    5.2810  -17.0670 C   0  0  0  0  0  0  0  0  0  0  0  0
   -7.7730    4.9010  -18.3940 C   0  0  0  0  0  0  0  0  0  0  0  0
   -8.9360    4.2710  -18.7940 C   0  0  0  0  0  0  0  0  0  0  0  0
   -9.9170    3.9930  -17.8680 C   0  0  0  0  0  0  0  0  0  0  0  0
   -9.7320    4.3360  -16.5470 C   0  0  0  0  0  0  0  0  0  0  0  0
   -8.5570    4.9690  -16.1200 C   0  0  0  0  0  0  0  0  0  0  0  0
   -8.4450    5.3550  -14.6730 C   0  0  0  0  0  0  0  0  0  0  0  0
   -8.7550    4.5870  -12.3620 C   0  0  0  0  0  0  0  0  0  0  0  0
   -8.8060    3.5580  -11.4210 C   0  0  0  0  0  0  0  0  0  0  0  0
   -8.1580    6.1750   -9.1610 C   0  0  0  0  0  0  0  0  0  0  0  0
   -8.4990    5.7370  -11.6220 C   0  0  0  0  0  0  0  0  0  0  0  0
   -5.3220    5.2150  -15.9190 C   0  0  0  0  0  0  0  0  0  0  0  0
  1  3  1  0  0  0  0
  2 18  1  0  0  0  0
  2 19  1  0  0  0  0
  3  4  1  0  0  0  0
  4  7  2  0  0  0  0
  4 10  1  0  0  0  0
  5  8  1  0  0  0  0
  5 20  2  0  0  0  0
  6 18  2  0  0  0  0
  7  9  1  0  0  0  0
  8 21  1  0  0  0  0
  8 22  1  0  0  0  0
  9 11  2  0  0  0  0
 10 23  2  0  0  0  0
 11 12  1  0  0  0  0
 11 23  1  0  0  0  0
 12 13  2  0  0  0  0
 12 17  1  0  0  0  0
 13 14  1  0  0  0  0
 14 15  2  0  0  0  0
 15 16  1  0  0  0  0
 16 17  2  0  0  0  0
 17 18  1  0  0  0  0
 19 20  1  0  0  0  0
 19 22  2  0  0  0  0
M  END
$$$$
