lig_92
  -OEChem-02282415433D

 15 16  0     1  0  0  0  0  0999 V2000
   -8.1050    2.4990    1.0470 N   0  0  0  0  0  0  0  0  0  0  0  0
   -8.5750    3.5470    0.3420 C   0  0  0  0  0  0  0  0  0  0  0  0
   -8.0180    3.9850   -0.6630 O   0  0  0  0  0  0  0  0  0  0  0  0
   -7.1470    2.6490    2.1440 C   0  0  2  0  0  0  0  0  0  0  0  0
   -7.8690    0.7780    3.5480 N   0  0  0  0  0  0  0  0  0  0  0  0
   -6.7680   -1.1130    3.8910 O   0  0  0  0  0  0  0  0  0  0  0  0
   -5.8500    1.8630    1.9080 C   0  0  0  0  0  0  0  0  0  0  0  0
  -10.6060    4.9570    0.0250 N   0  0  0  0  0  0  0  0  0  0  0  0
   -5.8330    0.3750    2.2940 C   0  0  0  0  0  0  0  0  0  0  0  0
   -6.8710   -0.0440    3.2950 C   0  0  0  0  0  0  0  0  0  0  0  0
   -7.8010    2.2320    3.4480 C   0  0  0  0  0  0  0  0  0  0  0  0
   -9.8280    4.1580    0.8530 C   0  0  0  0  0  0  0  0  0  0  0  0
  -10.2890    4.0230    2.1220 C   0  0  0  0  0  0  0  0  0  0  0  0
  -11.6290    5.4050    0.6920 C   0  0  0  0  0  0  0  0  0  0  0  0
  -11.7290    4.9070    2.3250 S   0  0  0  0  0  0  0  0  0  0  0  0
  1  2  1  0  0  0  0
  1  4  1  0  0  0  0
  2  3  2  0  0  0  0
  2 12  1  0  0  0  0
  4  7  1  0  0  0  0
  4 11  1  0  0  0  0
  5 10  1  0  0  0  0
  5 11  1  0  0  0  0
  6 10  2  0  0  0  0
  7  9  2  0  0  0  0
  8 12  1  0  0  0  0
  8 14  2  0  0  0  0
  9 10  1  0  0  0  0
 12 13  2  0  0  0  0
 13 15  1  0  0  0  0
 14 15  1  0  0  0  0
M  END
$$$$
