lig_30
  -OEChem-02282415433D

 15 16  0     1  0  0  0  0  0999 V2000
   -6.3630    5.7060  -17.6000 N   0  0  0  0  0  0  0  0  0  0  0  0
   -0.8180    5.5980  -19.7430 C   0  0  0  0  0  0  0  0  0  0  0  0
   -1.9860    5.4930  -18.9360 O   0  0  0  0  0  0  0  0  0  0  0  0
   -3.1320    6.0060  -19.5850 C   0  0  0  0  0  0  0  0  0  0  0  0
   -8.4650    5.3700  -16.6830 N   0  0  0  0  0  0  0  0  0  0  0  0
   -3.5930    6.0850  -17.2640 O   0  0  0  0  0  0  0  0  0  0  0  0
   -4.1700    6.3460  -18.5480 C   0  0  2  0  0  0  0  0  0  0  0  0
   -5.4360    5.5260  -18.7210 C   0  0  0  0  0  0  0  0  0  0  0  0
   -5.7250    5.4770  -16.2920 C   0  0  0  0  0  0  0  0  0  0  0  0
   -4.4810    6.3250  -16.1590 C   0  0  0  0  0  0  0  0  0  0  0  0
   -7.7010    5.3870  -17.7850 C   0  0  0  0  0  0  0  0  0  0  0  0
   -8.1990    5.0800  -19.0510 C   0  0  0  0  0  0  0  0  0  0  0  0
   -9.5390    4.7490  -19.1570 C   0  0  0  0  0  0  0  0  0  0  0  0
  -10.3290    4.7240  -18.0420 C   0  0  0  0  0  0  0  0  0  0  0  0
   -9.7530    5.0320  -16.8320 C   0  0  0  0  0  0  0  0  0  0  0  0
  1  8  1  0  0  0  0
  1  9  1  0  0  0  0
  1 11  1  0  0  0  0
  2  3  1  0  0  0  0
  3  4  1  0  0  0  0
  4  7  1  0  0  0  0
  5 11  2  0  0  0  0
  5 15  1  0  0  0  0
  6  7  1  0  0  0  0
  6 10  1  0  0  0  0
  7  8  1  0  0  0  0
  9 10  1  0  0  0  0
 11 12  1  0  0  0  0
 12 13  2  0  0  0  0
 13 14  1  0  0  0  0
 14 15  2  0  0  0  0
M  END
$$$$
