lig_2
  -OEChem-02282415433D

 10 11  0     0  0  0  0  0  0999 V2000
   -8.9990    6.0440   -8.2920 N   0  0  0  0  0  0  0  0  0  0  0  0
   -8.7080    5.6050  -11.9720 C   0  0  0  0  0  0  0  0  0  0  0  0
   -8.8430    5.4870  -10.4780 C   0  0  0  0  0  0  0  0  0  0  0  0
   -9.0910    4.6960   -8.4580 N   0  0  0  0  0  0  0  0  0  0  0  0
   -8.8480    6.5170   -9.5200 C   0  0  0  0  0  0  0  0  0  0  0  0
   -8.9250    1.9860   -8.9940 N   0  3  0  0  0  0  0  0  0  0  0  0
   -9.2690    3.7780   -7.3280 C   0  0  0  0  0  0  0  0  0  0  0  0
   -9.7340    2.4290   -7.8430 C   0  0  0  0  0  0  0  0  0  0  0  0
   -9.0780    2.8940  -10.1350 C   0  0  0  0  0  0  0  0  0  0  0  0
   -8.9990    4.3400   -9.7570 C   0  0  0  0  0  0  0  0  0  0  0  0
  1  4  1  0  0  0  0
  1  5  2  0  0  0  0
  2  3  1  0  0  0  0
  3  5  1  0  0  0  0
  3 10  2  0  0  0  0
  4  7  1  0  0  0  0
  4 10  1  0  0  0  0
  6  8  1  0  0  0  0
  6  9  1  0  0  0  0
  7  8  1  0  0  0  0
  9 10  1  0  0  0  0
M  CHG  1   6   1
M  END
$$$$
