lig_82
  -OEChem-02282415433D

 16 17  0     1  0  0  0  0  0999 V2000
   -6.3610    8.1390  -15.9230 N   0  0  0  0  0  0  0  0  0  0  0  0
   -5.9540    7.6790  -17.0990 C   0  0  0  0  0  0  0  0  0  0  0  0
   -5.6540    8.4310  -18.0260 O   0  0  0  0  0  0  0  0  0  0  0  0
   -5.8670    6.1430  -17.2600 C   0  0  1  0  0  0  0  0  0  0  0  0
   -3.5410    6.1590  -18.3220 N   0  3  0  0  0  0  0  0  0  0  0  0
   -7.2880    5.6010  -17.4770 C   0  0  0  0  0  0  0  0  0  0  0  0
   -8.1500    5.4040  -16.4020 C   0  0  0  0  0  0  0  0  0  0  0  0
   -9.4520    4.9770  -16.5960 C   0  0  0  0  0  0  0  0  0  0  0  0
   -9.8770    4.7580  -17.8810 C   0  0  0  0  0  0  0  0  0  0  0  0
   -9.0580    4.8920  -18.9650 C   0  0  0  0  0  0  0  0  0  0  0  0
   -7.7590    5.3220  -18.7570 C   0  0  0  0  0  0  0  0  0  0  0  0
   -4.9540    5.8180  -18.4790 C   0  0  0  0  0  0  0  0  0  0  0  0
   -2.9650    5.6330  -17.0570 C   0  0  0  0  0  0  0  0  0  0  0  0
   -3.8990    4.7830  -16.2220 C   0  0  0  0  0  0  0  0  0  0  0  0
   -5.2110    5.5290  -15.9930 C   0  0  0  0  0  0  0  0  0  0  0  0
  -11.1940    4.4910  -18.0950 F   0  0  0  0  0  0  0  0  0  0  0  0
  1  2  1  0  0  0  0
  2  3  2  0  0  0  0
  2  4  1  0  0  0  0
  4  6  1  0  0  0  0
  4 12  1  0  0  0  0
  4 15  1  0  0  0  0
  5 12  1  0  0  0  0
  5 13  1  0  0  0  0
  6  7  2  0  0  0  0
  6 11  1  0  0  0  0
  7  8  1  0  0  0  0
  8  9  2  0  0  0  0
  9 10  1  0  0  0  0
  9 16  1  0  0  0  0
 10 11  2  0  0  0  0
 13 14  1  0  0  0  0
 14 15  1  0  0  0  0
M  CHG  1   5   1
M  END
$$$$
