lig_64
  -OEChem-02282415433D

 16 16  0     0  0  0  0  0  0999 V2000
   -5.1080    7.5640  -25.2990 N   0  0  0  0  0  0  0  0  0  0  0  0
   -8.1640   10.8830  -26.7730 C   0  0  0  0  0  0  0  0  0  0  0  0
   -7.7450    9.9650  -25.8030 O   0  0  0  0  0  0  0  0  0  0  0  0
   -6.6780    9.1480  -26.2440 C   0  0  0  0  0  0  0  0  0  0  0  0
   -1.0690    5.2010  -24.0890 N   0  0  0  0  0  0  0  0  0  0  0  0
   -6.6590    8.5220  -23.9460 O   0  0  0  0  0  0  0  0  0  0  0  0
   -6.1490    8.3850  -25.0480 C   0  0  0  0  0  0  0  0  0  0  0  0
   -0.6470    6.2230  -26.0750 O   0  0  0  0  0  0  0  0  0  0  0  0
   -4.4570    6.6900  -24.4070 C   0  0  0  0  0  0  0  0  0  0  0  0
   -5.0800    6.1070  -23.3110 C   0  0  0  0  0  0  0  0  0  0  0  0
   -4.3950    5.1780  -22.5590 C   0  0  0  0  0  0  0  0  0  0  0  0
   -3.0790    4.8710  -22.8380 C   0  0  0  0  0  0  0  0  0  0  0  0
   -2.4360    5.4800  -23.9050 C   0  0  0  0  0  0  0  0  0  0  0  0
   -0.2580    5.5560  -25.1080 C   0  0  0  0  0  0  0  0  0  0  0  0
    1.1550    5.0520  -24.9970 C   0  0  0  0  0  0  0  0  0  0  0  0
   -3.1370    6.3710  -24.7090 C   0  0  0  0  0  0  0  0  0  0  0  0
  1  7  1  0  0  0  0
  1  9  1  0  0  0  0
  2  3  1  0  0  0  0
  3  4  1  0  0  0  0
  4  7  1  0  0  0  0
  5 13  1  0  0  0  0
  5 14  1  0  0  0  0
  6  7  2  0  0  0  0
  8 14  2  0  0  0  0
  9 10  2  0  0  0  0
  9 16  1  0  0  0  0
 10 11  1  0  0  0  0
 11 12  2  0  0  0  0
 12 13  1  0  0  0  0
 13 16  2  0  0  0  0
 14 15  1  0  0  0  0
M  END
$$$$
